/*--------------------------------*- C++ -*----------------------------------*\
| =========                 |                                                 |
| \\      /  F ield         | OpenFOAM: The Open Source CFD Toolbox           |
|  \\    /   O peration     | Version:  2.3.x                                 |
|   \\  /    A nd           | Web:      www.OpenFOAM.org                      |
|    \\/     M anipulation  |                                                 |
\*---------------------------------------------------------------------------*/
FoamFile
{
    version     2.0;
    format      ascii;
    class       volScalarField;
    location    "0";
    object      T;
}
// * * * * * * * * * * * * * * * * * * * * * * * * * * * * * * * * * * * * * //

dimensions      [0 0 0 1 0 0 0];

gasT   873;
wallT 1473;

internalField   uniform $gasT;

boundaryField
{
    inlet
    {
        type            fixedValue;
        value           uniform $gasT;
    }
    adiabaticWall
    {
        type            zeroGradient;
    }
    wall
    {
        type            fixedValue;
        value           uniform $wallT;
    }
    outlet
    {
	type            zeroGradient;
    }
    axis
    {
	type		symmetryPlane;
    }
    frontAndBack
    {
        type            empty;
    }
}

// ************************************************************************* //
