ELEMENTS
H O C N
END

SPECIES
CH4 O2 CO2 H2O N2
END

REACTIONS

CH4 + 2O2 => CO2 + 2H2O	1e14 0 20000
FORD / O2 1.00 /

END
