ELEMENTS
H O N
END

SPECIES
H2 O2 H2O N2
END

REACTIONS

H2 + 0.5O2 => H2O	1e14 0 20000
FORD / O2 1.00 /

END
